<?xml version="1.0" encoding="UTF-8"?>

<routes xmlns:xsi="http://www.w3.org/2001/XMLSchema-instance" xsi:noNamespaceSchemaLocation="http://sumo.dlr.de/xsd/routes_file.xsd">
    <vType id="car" vClass="passenger" speedFactor="1.0" color="1,1,0"/>
    <vType id="bus" vClass="bus" speedFactor="0.9" color="0,1,1"/>
    <vType id="truck" vClass="truck" speedFactor="0.8" color="1,0,1"/>
    
    <route id="route_0" edges="A0A1 A1B1"/>
    <route id="route_1" edges="A0B0 B0B1"/>
    <route id="route_2" edges="A1A0 A0B0"/>
    <route id="route_3" edges="B0A0 A0A1"/>
    <route id="route_4" edges="B1A1 A1A0"/>
    <route id="route_5" edges="B1B0 B0A0"/>
    <route id="route_6" edges="A1B1 B1B0"/>
    <route id="route_7" edges="B0B1 B1A1"/>
    
    <flow id="flow_route_0" type="car" route="route_0" begin="0" end="3600" vehsPerHour="600"/>
    <flow id="flow_route_1" type="car" route="route_1" begin="0" end="3600" vehsPerHour="600"/>
    <flow id="flow_route_2" type="car" route="route_2" begin="0" end="3600" vehsPerHour="600"/>
    <flow id="flow_route_3" type="car" route="route_3" begin="0" end="3600" vehsPerHour="600"/>
    <flow id="flow_route_4" type="car" route="route_4" begin="0" end="3600" vehsPerHour="600"/>
    <flow id="flow_route_5" type="car" route="route_5" begin="0" end="3600" vehsPerHour="600"/>
    <flow id="flow_route_6" type="car" route="route_6" begin="0" end="3600" vehsPerHour="600"/>
    <flow id="flow_route_7" type="car" route="route_7" begin="0" end="3600" vehsPerHour="600"/>
    
    <!-- Add some buses and trucks for variety -->
    <flow id="flow_bus_0" type="bus" route="route_0" begin="0" end="3600" vehsPerHour="60"/>
    <flow id="flow_truck_0" type="truck" route="route_1" begin="0" end="3600" vehsPerHour="60"/>
</routes>

